Estimador_Hibrido/sist/ieee35_SP_JML.cdf
 08/25/93 UW ARCHIVE           100.0  1961 W IEEE 118 Bus Test Case
BUS DATA FOLLOWS                            57 ITEMS
   1 Riversde  V2  1  1  2 1.051 -16.82     34.8     18.5      0.0     0.0     0.0  0.955    15.0    -5.0   0.0    0.0        0
   2 Pokagon   V2  1  1  0 1.066 -16.80     13.7      6.2      0.0     0.0     0.0  0.0       0.0     0.0   0.0    0.0        0
   3 HickryCk  V2  1  1  0 1.062 -16.28     26.6      6.8      0.0     0.0     0.0  0.0       0.0     0.0   0.0    0.0        0
   4 NwCarlsl  V2  1  1  2 1.100 -13.70     26.7      8.2    100.0     0.0     0.0  0.998   300.0  -300.0   0.0    0.0        0
   5 Olive     V2  1  1  0 1.084 -13.43      0.0      0.0      0.0     0.0     0.0  0.0       0.0     0.0   0.0   -0.40       0
   6 Kankakee  V2  1  1  2 1.055 -15.13     35.5     15.0      5.0     0.0     0.0  0.990    50.0   -13.0   0.0    0.0        0
   7 JacksnRd  V2  1  1  0 1.064 -15.69     13.0      1.4      0.0     0.0     0.0  0.0       0.0     0.0   0.0    0.0        0
   8 Olive     V1  1  1  2 1.055 -10.20     19.1      0.0    100.0     0.0     0.0  1.015   300.0  -300.0   0.0    0.0        0
   9 Bequine   V1  1  1  0 1.097  -8.86      0.0      0.0      0.0     0.0     0.0  0.0       0.0     0.0   0.0    0.0        0
  10 Breed     V1  1  1  2 1.100  -7.34      0.0      0.0    100.0     0.0     0.0  1.050   200.0  -147.0   0.0    0.0        0
  11 SouthBnd  V2  1  1  0 1.079 -16.61     47.8     15.7      0.0     0.0     0.0  0.0       0.0     0.0   0.0    0.0        0
  12 TwinBrch  V2  1  1  2 1.080 -16.40     32.1      6.8     30.0     0.0     0.0  0.990   120.0   -35.0   0.0    0.0        0
  13 Concord   V2  1  1  0 1.019 -22.71     23,2     10.9      0.0     0.0     0.0  0.0       0.0     0.0   0.0    0.0        0
  14 GoshenJt  V2  1  1  0 1.075 -15.90      9.6      0.7      0.0     0.0     0.0  0.0       0.0     0.0   0.0    0.0        0
  15 FtWayne   V2  1  1  2 1.063 -13.44     61.5     20.5      5.0     0.0     0.0  0.970    30.0   -10.0   0.0    0.0        0
  16 N. E.     V2  1  1  0 1.074 -14.96     17.1      6.8      0.0     0.0     0.0  0.0       0.0     0.0   0.0    0.0        0
  17 Sorenson  V2  1  1  0 1.078 -10.37      7.5      2.1      0.0     0.0     0.0  0.0       0.0     0.0   0.0    0.0        0
  18 McKinley  V2  1  1  2 1.068 -12.03     41.0     23.2      5.0     0.0     0.0  0.973    50.0   -16.0   0.0    0.0        0
  20 Adams     V2  1  1  0 1.056 -10.16     12.3      2.1      0.0     0.0     0.0  0.0       0.0     0.0   0.0    0.0        0
  21 Jay       V2  1  1  0 1.056  -7.73      9.6      5.5      0.0     0.0     0.0  0.0       0.0     0.0   0.0    0.0        0
  22 Randolph  V2  1  1  0 1.064  -4.54      6.8      3.4      0.0     0.0     0.0  0.0       0.0     0.0   0.0    0.0        0
  23 CollCrnr  V2  1  1  0 1.086   1.10      4.8      2.1      0.0     0.0     0.0  0.0       0.0     0.0   0.0    0.0        0
  24 TannrsCk  V2  1  1  2 1.100   3.89      0.0      0.0    100.0     0.0     0.0  1.050   140.0   -47.0   0.0    0.0        0
  25 TannrsCk  V1  1  1  2 0.976   4.58      0.0      0.0    300.0     0.0     0.0  1.015  1000.0 -1000.0   0.0    0.0        0
  26 Madison   V2  1  1  2 1.095  -0.83     48.5      8.9    100.0     0.0     0.0  0.968   300.0  -300.0   0.0    0.0        0
  27 Mullin    V2  1  1  0 1.094  -2.23     11.6      4.8      0.0     0.0     0.0  0.0       0.0     0.0   0.0    0.0        0
  28 Grant     V2  1  1  0 1.097  -3.28     16.4      2.7      0.0     0.0     0.0  0.0       0.0     0.0   0.0    0.0        0
  29 Sorenson  V1  1  1  0 1.060  -8.61      0.0      0.0      0.0     0.0     0.0  0.0       0.0     0.0   0.0    0.0        0
  30 DeerCrk   V2  1  1  2 1.100  -3.41     29.4     18.5    100.0     0.0     0.0  0.967   300.0  -300.0   0.0    0.0        0
  31 Delaware  V2  1  1  2 1.089  -2.47     40.3     15.7      5.0     0.0     0.0  0.963    42.0   -14.0   0.0    0.0        0
  32 Deer Crk  V2  1  1  2 1.100  -9.34      4.1      0.0     30.0     0.0     0.0  0.993   200.0  -100.0   0.0    0.0        0
  33 WMedford  V2  1  1  0 1.089  -2.08      5.5      2.1      0.0     0.0     0.0  0.0       0.0     0.0   0.0    0.0        0
  34 Medford   V2  1  1  0 1.089  -1.99     15.0      4.8      0.0     0.0     0.0  0.0       0.0     0.0   0.0    0.0        0
  35 Corey     V2  1  1  0 1.071 -17.30     13.7      5.5      0.0     0.0     0.0  0.0       0.0     0.0   0.0    0.0        0
-999
BRANCH DATA FOLLOWS                         80 ITEMS
   1    2  1  1 1 0  0.03030   0.09990    0.02540     0     0     0    0 0  0.0       0.0 0.0    0.0     0.0    0.0    0.0
   1    3  1  1 1 0  0.01290   0.04240    0.01082     0     0     0    0 0  0.0       0.0 0.0    0.0     0.0    0.0    0.0
   4    5  1  1 1 0  0.00176   0.00798    0.00210     0     0     0    0 0  0.0       0.0 0.0    0.0     0.0    0.0    0.0
   3    5  1  1 1 0  0.02410   0.10800    0.02840     0     0     0    0 0  0.0       0.0 0.0    0.0     0.0    0.0    0.0
   5    6  1  1 1 0  0.01190   0.05400    0.01426     0     0     0    0 0  0.0       0.0 0.0    0.0     0.0    0.0    0.0
   6    7  1  1 1 0  0.00459   0.02080    0.00550     0     0     0    0 0  0.0       0.0 0.0    0.0     0.0    0.0    0.0
   8    9  1  1 1 0  0.00244   0.03050    1.16200     0     0     0    0 0  0.0       0.0 0.0    0.0     0.0    0.0    0.0
   8    5  1  1 1 1  0.00000   0.02670    0.0         0     0     0    0 0  0.0       0.0 0.0    0.0     0.0    0.0    0.0
   9   10  1  1 1 0  0.00258   0.03220    1.23000     0     0     0    0 0  0.0       0.0 0.0    0.0     0.0    0.0    0.0
   4   11  1  1 1 0  0.02090   0.06880    0.01748     0     0     0    0 0  0.0       0.0 0.0    0.0     0.0    0.0    0.0
   5   11  1  1 1 0  0.02030   0.06820    0.01738     0     0     0    0 0  0.0       0.0 0.0    0.0     0.0    0.0    0.0
  11   12  1  1 1 0  0.00595   0.01960    0.00502     0     0     0    0 0  0.0       0.0 0.0    0.0     0.0    0.0    0.0
   2   12  1  1 1 0  0.01870   0.06160    0.01572     0     0     0    0 0  0.0       0.0 0.0    0.0     0.0    0.0    0.0
   3   12  1  1 1 0  0.04840   0.16000    0.04060     0     0     0    0 0  0.0       0.0 0.0    0.0     0.0    0.0    0.0
   7   12  1  1 1 0  0.00862   0.03400    0.00874     0     0     0    0 0  0.0       0.0 0.0    0.0     0.0    0.0    0.0
  11   13  1  1 1 0  0.02225   0.07310    0.01876     0     0     0    0 0  0.0       0.0 0.0    0.0     0.0    0.0    0.0
  12   14  1  1 1 0  0.02150   0.07070    0.01816     0     0     0    0 0  0.0       0.0 0.0    0.0     0.0    0.0    0.0
  13   15  1  1 1 0  0.07440   0.24440    0.06268     0     0     0    0 0  0.0       0.0 0.0    0.0     0.0    0.0    0.0
  14   15  1  1 1 0  0.05950   0.19500    0.05020     0     0     0    0 0  0.0       0.0 0.0    0.0     0.0    0.0    0.0
  12   16  1  1 1 0  0.02120   0.08340    0.02140     0     0     0    0 0  0.0       0.0 0.0    0.0     0.0    0.0    0.0
  15   17  1  1 1 0  0.01320   0.04370    0.04440     0     0     0    0 0  0.0       0.0 0.0    0.0     0.0    0.0    0.0
  16   17  1  1 1 0  0.04540   0.18010    0.04660     0     0     0    0 0  0.0       0.0 0.0    0.0     0.0    0.0    0.0
  17   18  1  1 1 0  0.01230   0.05050    0.01298     0     0     0    0 0  0.0       0.0 0.0    0.0     0.0    0.0    0.0
  20   21  1  1 1 0  0.01830   0.08490    0.02160     0     0     0    0 0  0.0       0.0 0.0    0.0     0.0    0.0    0.0
  21   22  1  1 1 0  0.02090   0.09700    0.02460     0     0     0    0 0  0.0       0.0 0.0    0.0     0.0    0.0    0.0
  22   23  1  1 1 0  0.03420   0.15900    0.04040     0     0     0    0 0  0.0       0.0 0.0    0.0     0.0    0.0    0.0
  23   24  1  1 1 0  0.01560   0.08000    0.08640     0     0     0    0 0  0.0       0.0 0.0    0.0     0.0    0.0    0.0
  25   24  1  1 1 1  0.00000   0.03820    0.0         0     0     0    0 0  0.0       0.0 0.0    0.0     0.0    0.0    0.0
  24   26  1  1 1 0  0.03180   0.16300    0.17640     0     0     0    0 0  0.0       0.0 0.0    0.0     0.0    0.0    0.0
  26   27  1  1 1 0  0.01913   0.08550    0.02160     0     0     0    0 0  0.0       0.0 0.0    0.0     0.0    0.0    0.0
  27   28  1  1 1 0  0.02370   0.09430    0.02380     0     0     0    0 0  0.0       0.0 0.0    0.0     0.0    0.0    0.0
  29   17  1  1 1 1  0.00000   0.03880    0.0         0     0     0    0 0  0.0       0.0 0.0    0.0     0.0    0.0    0.0
   8   29  1  1 1 0  0.00431   0.05040    0.51400     0     0     0    0 0  0.0       0.0 0.0    0.0     0.0    0.0    0.0
  25   29  1  1 1 0  0.00799   0.08600    0.90800     0     0     0    0 0  0.0       0.0 0.0    0.0     0.0    0.0    0.0
  17   30  1  1 1 0  0.04740   0.15630    0.03990     0     0     0    0 0  0.0       0.0 0.0    0.0     0.0    0.0    0.0
  28   30  1  1 1 0  0.01080   0.03310    0.00830     0     0     0    0 0  0.0       0.0 0.0    0.0     0.0    0.0    0.0
  23   31  1  1 1 0  0.03170   0.11530    0.11730     0     0     0    0 0  0.0       0.0 0.0    0.0     0.0    0.0    0.0
  30   31  1  1 1 0  0.02980   0.09850    0.02510     0     0     0    0 0  0.0       0.0 0.0    0.0     0.0    0.0    0.0
  26   31  1  1 1 0  0.02290   0.07550    0.01926     0     0     0    0 0  0.0       0.0 0.0    0.0     0.0    0.0    0.0
  17   32  1  1 1 0  0.00913   0.03010    0.00768     0     0     0    0 0  0.0       0.0 0.0    0.0     0.0    0.0    0.0
  31   32  1  1 1 0  0.06150   0.20300    0.05180     0     0     0    0 0  0.0       0.0 0.0    0.0     0.0    0.0    0.0
  31   33  1  1 1 0  0.01350   0.06120    0.01628     0     0     0    0 0  0.0       0.0 0.0    0.0     0.0    0.0    0.0
  26   34  1  1 1 0  0.01640   0.07410    0.01972     0     0     0    0 0  0.0       0.0 0.0    0.0     0.0    0.0    0.0
  33   34  1  1 1 0  0.00230   0.01040    0.00276     0     0     0    0 0  0.0       0.0 0.0    0.0     0.0    0.0    0.0
  12   35  1  1 1 0  0.03290   0.14000    0.03580     0     0     0    0 0  0.0       0.0 0.0    0.0     0.0    0.0    0.0
-999
LOSS ZONES FOLLOWS                     1 ITEMS
  1 IEEE 118 BUS
-99
INTERCHANGE DATA FOLLOWS               1 ITEMS
 1   80 CabinCrk  V2    0.0  999.99  IEEE118 IEEE 118 Bus Test Case
-9
TIE LINES FOLLOWS                      0 ITEMS
-999
END OF DATA
